VERSION 18
*******************************************************************************
*** TRNSYS input file (deck) generated by TrnsysStudio
*** on Friday, March 29, 2024 at 14:19
*** from TrnsysStudio project: C:\TRNSYS18\Examples\HVACTemplates\System1.tpf
*** 
*** If you edit this file, use the File/Import TRNSYS Input File function in 
*** TrnsysStudio to update the project. 
*** 
*** If you have problems, questions or suggestions please contact your local 
*** TRNSYS distributor or mailto:software@cstb.fr 
*** 
*******************************************************************************


*******************************************************************************
*** Units 
*******************************************************************************

*******************************************************************************
*** Control cards
*******************************************************************************
* START, STOP and STEP
CONSTANTS 3
START=0
STOP=8760
STEP=0.125
SIMULATION 	 START	 STOP	 STEP	! Start time	End time	Time step
TOLERANCES 0.001 0.001			! Integration	 Convergence
LIMITS 30 500 50				! Max iterations	Max warnings	Trace limit
DFQ 1					! TRNSYS numerical integration solver method
WIDTH 80				! TRNSYS output file width, number of characters
LIST 					! NOLIST statement
					! MAP statement
SOLVER 0 1 1				! Solver statement	Minimum relaxation factor	Maximum relaxation factor
NAN_CHECK 0				! Nan DEBUG statement
OVERWRITE_CHECK 0			! Overwrite DEBUG statement
TIME_REPORT 0			! disable time report
EQSOLVER 0				! EQUATION SOLVER statement
* User defined CONSTANTS 
*$USER_CONSTANTS
EQUATIONS 1
nPlots = (STOP-START)/168.
*$USER_CONSTANTS_END


* Model "Boston, MA" (Type 15)
* 

UNIT 3 TYPE 15	 Boston, MA
SUMMARIZE 3 "Boston, MA"
*$UNIT_NAME Boston, MA
*$MODEL .\Weather Data Reading and Processing\Standard Format\TMY3\Type15-TMY3.tmf
*$POSITION 226 180
*$LAYER Main # 
PARAMETERS 9
7		! 1 File Type
31		! 2 Logical unit
5		! 3 Tilted Surface Radiation Mode
0.2		! 4 Ground reflectance: no albedo reported
0.7		! 5 Not used
1		! 6 Number of surfaces
1		! 7 Tracking mode
0.0		! 8 Slope of surface
0		! 9 Azimuth of surface
*** External files
ASSIGN "weather\US_MA_BOSTON_LOGAN_INTL_ARPT_725090.tmy3" 31
*|? Which file contains the TMY-2 weather data? |1000
*------------------------------------------------------------------------------

* EQUATIONS "hOutside"
* 
EQUATIONS 2
windSpeed_corr = MAX(0.,[3,8]) ! gets rid of negative values in the data file.
hOutside = 3.6*(3.8*windSpeed_corr + 7.4)  !kJ/h.m2
*$UNIT_NAME hOutside
*$LAYER Main
*$POSITION 398 116
*$UNIT_NUMBER 11

*------------------------------------------------------------------------------


* EQUATIONS "flrArea"
* 
EQUATIONS 5
flr_LOWER1 = 150.  ! [m2] floor area for gains.
flr_LOWER2 = 150.
flr_LOWER3 = 150.
flr_LOWER4 = 150.
flr_UPPER = 400.
*$UNIT_NAME flrArea
*$LAYER Main
*$POSITION 75 724
*$UNIT_NUMBER 9

*------------------------------------------------------------------------------


* Model "M-F occ" (Type 14)
* 

UNIT 12 TYPE 14	 M-F occ
*$UNIT_NAME M-F occ
*$MODEL .\Utility\Forcing Functions\General\Type14h.tmf
*$POSITION 61 268
*$LAYER Main # 
PARAMETERS 34
0		! 1 Initial value of time
0		! 2 Initial value of function
7		! 3 Time at point
0		! 4 Value at point
7		! 5 Time at point
.1		! 6 Value at point
8		! 7 Time at point
.1		! 8 Value at point
9		! 9 Time at point
.2		! 10 Value at point
9		! 11 Time at point
.95		! 12 Value at point
13		! 13 Time at point
.95		! 14 Value at point
13		! 15 Time at point
0.5		! 16 Value at point
14		! 17 Time at point
.5		! 18 Value at point
14		! 19 Time at point
.95		! 20 Value at point
18		! 21 Time at point
.95		! 22 Value at point
18		! 23 Time at point
.3		! 24 Value at point
19		! 25 Time at point
.3		! 26 Value at point
19		! 27 Time at point
.1		! 28 Value at point
23		! 29 Time at point
.1		! 30 Value at point
23		! 31 Time at point
.05		! 32 Value at point
24		! 33 Time at point
0.05		! 34 Value at point
*------------------------------------------------------------------------------

* Model "Sa occ" (Type 14)
* 

UNIT 13 TYPE 14	 Sa occ
*$UNIT_NAME Sa occ
*$MODEL .\Utility\Forcing Functions\General\Type14h.tmf
*$POSITION 61 343
*$LAYER Main # 
PARAMETERS 24
0		! 1 Initial value of time
0		! 2 Initial value of function
7		! 3 Time at point
0		! 4 Value at point
7		! 5 Time at point
.1		! 6 Value at point
9		! 7 Time at point
.1		! 8 Value at point
9		! 9 Time at point
.3		! 10 Value at point
13		! 11 Time at point
.3		! 12 Value at point
13		! 13 Time at point
.1		! 14 Value at point
18		! 15 Time at point
.1		! 16 Value at point
18		! 17 Time at point
.05		! 18 Value at point
20		! 19 Time at point
0.05		! 20 Value at point
20		! 21 Time at point
0		! 22 Value at point
24		! 23 Time at point
0		! 24 Value at point
*------------------------------------------------------------------------------

* Model "Su occ" (Type 14)
* 

UNIT 14 TYPE 14	 Su occ
*$UNIT_NAME Su occ
*$MODEL .\Utility\Forcing Functions\General\Type14h.tmf
*$POSITION 61 415
*$LAYER Main # 
PARAMETERS 12
0		! 1 Initial value of time
0		! 2 Initial value of function
7		! 3 Time at point
0		! 4 Value at point
7		! 5 Time at point
.05		! 6 Value at point
18		! 7 Time at point
.05		! 8 Value at point
18		! 9 Time at point
0		! 10 Value at point
24		! 11 Time at point
0		! 12 Value at point
*------------------------------------------------------------------------------

* Model "occ sched" (Type 41)
* 

UNIT 15 TYPE 41	 occ sched
*$UNIT_NAME occ sched
*$MODEL .\Utility\Forcing Function Sequencers\Unique Days of the Week\Type41c.tmf
*$POSITION 189 307
*$LAYER Main # 
PARAMETERS 8
1		! 1 Number of profiles for each day
1		! 2 Input set for day 1
2		! 3 Input set for day 2
3		! 4 Input set for day 3
4		! 5 Input set for day 4
5		! 6 Input set for day 5
6		! 7 Input set for day 6
7		! 8 Input set for day 7
INPUTS 7
12,1 		! M-F occ:Average value of function ->First day input 
12,1 		! M-F occ:Average value of function ->Second day input
12,1 		! M-F occ:Average value of function ->Third day input
12,1 		! M-F occ:Average value of function ->Fourth day input
12,1 		! M-F occ:Average value of function ->Fifth day input
13,1 		! Sa occ:Average value of function ->Sixth day input
14,1 		! Su occ:Average value of function ->Seventh day input
*** INITIAL INPUT VALUES
0 0 0 0 0 0 0 
*------------------------------------------------------------------------------

* Model "M-F lgt/eqp" (Type 14)
* 

UNIT 17 TYPE 14	 M-F lgt/eqp
*$UNIT_NAME M-F lgt/eqp
*$MODEL .\Utility\Forcing Functions\General\Type14h.tmf
*$POSITION 75 492
*$LAYER Main # 
PARAMETERS 42
0		! 1 Initial value of time
0.05		! 2 Initial value of function
5		! 3 Time at point
0.05		! 4 Value at point
5		! 5 Time at point
.1		! 6 Value at point
7		! 7 Time at point
.1		! 8 Value at point
7		! 9 Time at point
.3		! 10 Value at point
8		! 11 Time at point
.3		! 12 Value at point
8		! 13 Time at point
.9		! 14 Value at point
12		! 15 Time at point
.9		! 16 Value at point
12		! 17 Time at point
.8		! 18 Value at point
13		! 19 Time at point
.8		! 20 Value at point
13		! 21 Time at point
.9		! 22 Value at point
17		! 23 Time at point
.9		! 24 Value at point
17		! 25 Time at point
.5		! 26 Value at point
18		! 27 Time at point
.5		! 28 Value at point
18		! 29 Time at point
.3		! 30 Value at point
20		! 31 Time at point
.3		! 32 Value at point
20		! 33 Time at point
.2		! 34 Value at point
22		! 35 Time at point
.2		! 36 Value at point
22		! 37 Time at point
.1		! 38 Value at point
23		! 39 Time at point
.1		! 40 Value at point
23		! 41 Time at point
.05		! 42 Value at point
*------------------------------------------------------------------------------

* Model "Sa lgt/eqp" (Type 14)
* 

UNIT 18 TYPE 14	 Sa lgt/eqp
*$UNIT_NAME Sa lgt/eqp
*$MODEL .\Utility\Forcing Functions\General\Type14h.tmf
*$POSITION 73 566
*$LAYER Main # 
PARAMETERS 24
0		! 1 Initial value of time
0.05		! 2 Initial value of function
7		! 3 Time at point
0.05		! 4 Value at point
7		! 5 Time at point
.1		! 6 Value at point
9		! 7 Time at point
.1		! 8 Value at point
9		! 9 Time at point
.3		! 10 Value at point
13		! 11 Time at point
.3		! 12 Value at point
13		! 13 Time at point
.15		! 14 Value at point
17		! 15 Time at point
.15		! 16 Value at point
17		! 17 Time at point
.1		! 18 Value at point
18		! 19 Time at point
.1		! 20 Value at point
18		! 21 Time at point
.05		! 22 Value at point
24		! 23 Time at point
0.05		! 24 Value at point
*------------------------------------------------------------------------------

* Model "Su lgt/eqp" (Type 14)
* 

UNIT 19 TYPE 14	 Su lgt/eqp
*$UNIT_NAME Su lgt/eqp
*$MODEL .\Utility\Forcing Functions\General\Type14h.tmf
*$POSITION 73 641
*$LAYER Main # 
PARAMETERS 4
0		! 1 Initial value of time
0.05		! 2 Initial value of function
24		! 3 Time at point
0.05		! 4 Value at point
*------------------------------------------------------------------------------

* Model "lgt/eqp sched" (Type 41)
* 

UNIT 20 TYPE 41	 lgt/eqp sched
*$UNIT_NAME lgt/eqp sched
*$MODEL .\Utility\Forcing Function Sequencers\Unique Days of the Week\Type41c.tmf
*$POSITION 234 566
*$LAYER Main # 
PARAMETERS 8
1		! 1 Number of profiles for each day
1		! 2 Input set for day 1
2		! 3 Input set for day 2
3		! 4 Input set for day 3
4		! 5 Input set for day 4
5		! 6 Input set for day 5
6		! 7 Input set for day 6
7		! 8 Input set for day 7
INPUTS 7
17,1 		! M-F lgt/eqp:Average value of function ->First day input 
17,1 		! M-F lgt/eqp:Average value of function ->Second day input
17,1 		! M-F lgt/eqp:Average value of function ->Third day input
17,1 		! M-F lgt/eqp:Average value of function ->Fourth day input
17,1 		! M-F lgt/eqp:Average value of function ->Fifth day input
18,1 		! Sa lgt/eqp:Average value of function ->Sixth day input
19,1 		! Su lgt/eqp:Average value of function ->Seventh day input
*** INITIAL INPUT VALUES
0 0 0 0 0 0 0 
*------------------------------------------------------------------------------

* EQUATIONS "gains"
* 
EQUATIONS 17
lgt_LOWER1 = (13.)*flr_LOWER1*3.6*[20,1]  !assumes 13W/m2 (~1.2W/ft2) lighting gain
lgt_LOWER2 = (13.)*flr_LOWER2*3.6*[20,1]
lgt_LOWER3 = (13.)*flr_LOWER3*3.6*[20,1]
lgt_LOWER4 = (13.)*flr_LOWER4*3.6*[20,1]
lgt_UPPER = (13.)*flr_UPPER*3.6*[20,1]
eqp_LOWER1 = (21.5)*flr_LOWER1*3.6*[20,1]  !assumes 21.5W/m2 (~2W/ft2) equipment gain
eqp_LOWER2 = (21.5)*flr_LOWER2*3.6*[20,1]
eqp_LOWER3 = (21.5)*flr_LOWER3*3.6*[20,1]
eqp_LOWER4 = (21.5)*flr_LOWER4*3.6*[20,1]
eqp_UPPER = (21.5)*flr_UPPER*3.6*[20,1]
peo_LOWER1 = flr_LOWER1/(20.)*[15,1]  ! assumes 20m2/occ (~200ft2/occ)
peo_LOWER2 = flr_LOWER2/(20.)*[15,1]
peo_LOWER3 = flr_LOWER3/(20.)*[15,1]
peo_LOWER4 = flr_LOWER4/(20.)*[15,1]
peo_UPPER = flr_UPPER/(20.)*[15,1]
lgt_Total = lgt_LOWER1 + lgt_LOWER2 + lgt_LOWER3 + lgt_LOWER4 + lgt_UPPER
eqp_Total = eqp_LOWER1 + eqp_LOWER2 + eqp_LOWER3 + eqp_LOWER4 + eqp_UPPER
*$UNIT_NAME gains
*$LAYER Main
*$POSITION 404 254
*$UNIT_NUMBER 8

*------------------------------------------------------------------------------


* Model "OA sched" (Type 14)
* 

UNIT 16 TYPE 14	 OA sched
*$UNIT_NAME OA sched
*$MODEL .\Utility\Forcing Functions\General\Type14h.tmf
*$POSITION 211 724
*$LAYER Main # 
PARAMETERS 44
0		! 1 Initial value of time
0		! 2 Initial value of function
8		! 3 Time at point
0		! 4 Value at point
8		! 5 Time at point
1		! 6 Value at point
17		! 7 Time at point
1		! 8 Value at point
17		! 9 Time at point
0		! 10 Value at point
32		! 11 Time at point
0		! 12 Value at point
32		! 13 Time at point
1		! 14 Value at point
41		! 15 Time at point
1		! 16 Value at point
41		! 17 Time at point
0		! 18 Value at point
56		! 19 Time at point
0		! 20 Value at point
56		! 21 Time at point
1		! 22 Value at point
65		! 23 Time at point
1		! 24 Value at point
65		! 25 Time at point
0		! 26 Value at point
80		! 27 Time at point
0		! 28 Value at point
80		! 29 Time at point
1		! 30 Value at point
89		! 31 Time at point
1		! 32 Value at point
89		! 33 Time at point
0		! 34 Value at point
104		! 35 Time at point
0		! 36 Value at point
104		! 37 Time at point
1		! 38 Value at point
113		! 39 Time at point
1		! 40 Value at point
113		! 41 Time at point
0		! 42 Value at point
168		! 43 Time at point
0		! 44 Value at point
*------------------------------------------------------------------------------

* EQUATIONS "OA quantity"
* 
EQUATIONS 5
lpsOA_LWR1 = (0.3)*flr_LOWER1 + (2.5)*8. ! [L/s] required amount of outside air
lpsOA_LWR2 = (0.3)*flr_LOWER2 + (2.5)*8.
lpsOA_LWR3 = (0.3)*flr_LOWER3 + (2.5)*8.
lpsOA_LWR4 = (0.3)*flr_LOWER4 + (2.5)*8.
lpsOA_UPR = (0.3)*flr_UPPER + (2.5)*10.
*$UNIT_NAME OA quantity
*$LAYER Main
*$POSITION 215 799
*$UNIT_NUMBER 25

*------------------------------------------------------------------------------


* Model "example building" (Type 56)
* 

UNIT 2 TYPE 56	 example building
*$UNIT_NAME example building
*$MODEL .\Loads and Structures\Multi-Zone Building\Type56.tmf
*$POSITION 541 180
*$LAYER Main # 
*$#   
PARAMETERS 3
30		! 1 Logical unit for building description file (*.b18, *.b17, *.bui)
0		! 2 Star network calculation switch
0.50		! 3 Weighting factor for operative temperature
INPUTS 39
3,1 		! Boston, MA:Dry bulb temperature -> 1- TAMB
3,7 		! Boston, MA:Percent relative humidity -> 2- RELHUMAMB
3,4 		! Boston, MA:Effective sky temperature -> 3- TSKY
3,1 		! Boston, MA:Dry bulb temperature -> 4- TSGRD
3,16 		! Boston, MA:Solar zenith angle -> 5- AZEN
3,17 		! Boston, MA:Solar azimuth angle -> 6- AAZM
3,59 		! Boston, MA:Ground reflectance -> 7- GRDREF
3,1 		! Boston, MA:Dry bulb temperature -> 8- TGROUND
hOutside		! hOutside:hOutside -> 9- HOUTSIDE
lgt_LOWER1		! gains:lgt_LOWER1 -> 10- LGT_LOWER1
lgt_LOWER2		! gains:lgt_LOWER2 -> 11- LGT_LOWER2
lgt_LOWER3		! gains:lgt_LOWER3 -> 12- LGT_LOWER3
lgt_LOWER4		! gains:lgt_LOWER4 -> 13- LGT_LOWER4
lgt_UPPER		! gains:lgt_UPPER -> 14- LGT_UPPER
eqp_LOWER1		! gains:eqp_LOWER1 -> 15- EQP_LOWER1
eqp_LOWER2		! gains:eqp_LOWER2 -> 16- EQP_LOWER2
eqp_LOWER3		! gains:eqp_LOWER3 -> 17- EQP_LOWER3
eqp_LOWER4		! gains:eqp_LOWER4 -> 18- EQP_LOWER4
eqp_UPPER		! gains:eqp_UPPER -> 19- EQP_UPPER
peo_LOWER1		! gains:peo_LOWER1 -> 20- NOCC_LOWER1
peo_LOWER2		! gains:peo_LOWER2 -> 21- NOCC_LOWER2
peo_LOWER3		! gains:peo_LOWER3 -> 22- NOCC_LOWER3
peo_LOWER4		! gains:peo_LOWER4 -> 23- NOCC_LOWER4
peo_UPPER		! gains:peo_UPPER -> 24- NOCC_UPPER
28,6 		! LWR1 HC:Outlet Air Flow Rate -> 25- MVNT_LOWER1
28,3 		! LWR1 HC:Outlet Air Temperature -> 26- TVNT_LOWER1
28,5 		! LWR1 HC:Outlet Air Relative Humidity -> 27- RHVNT_LOWER1
35,6 		! LWR2 HC:Outlet Air Flow Rate -> 28- MVNT_LOWER2
35,3 		! LWR2 HC:Outlet Air Temperature -> 29- TVNT_LOWER2
35,5 		! LWR2 HC:Outlet Air Relative Humidity -> 30- RHVNT_LOWER2
43,6 		! LWR3 HC:Outlet Air Flow Rate -> 31- MVNT_LOWER3
43,3 		! LWR3 HC:Outlet Air Temperature -> 32- TVNT_LOWER3
43,5 		! LWR3 HC:Outlet Air Relative Humidity -> 33- RHVNT_LOWER3
50,6 		! LWR4 HC:Outlet Air Flow Rate -> 34- MVNT_LOWER4
50,3 		! LWR4 HC:Outlet Air Temperature -> 35- TVNT_LOWER4
50,5 		! LWR4 HC:Outlet Air Relative Humidity -> 36- RHVNT_LOWER4
57,6 		! UPPER HC:Outlet Air Flow Rate -> 37- MVNT_UPPER
57,3 		! UPPER HC:Outlet Air Temperature -> 38- TVNT_UPPER
57,5 		! UPPER HC:Outlet Air Relative Humidity -> 39- RHVNT_UPPER
*** INITIAL INPUT VALUES
0 0 0 0 0 0 0 0 0 0 0 0 0 0 0 0 0 0 0 0 0 0 0 0 0 0 0 0 0 0 0 0 0 0 0 0 0 0 0 
*** External files
ASSIGN "buildings\ExampleBuilding_Sys1.b18" 30
*|? Building description file (*.b18, *.b17, *.bui) |1000
*------------------------------------------------------------------------------

* Model "LWR1 stat" (Type 166)
* 

UNIT 21 TYPE 166	 LWR1 stat
*$UNIT_NAME LWR1 stat
*$MODEL .\Controllers\Simple Thermostat\Type166.tmf
*$POSITION 295 84
*$LAYER Main # 
*$# Simple Thermostat
PARAMETERS 2
5		! 1 No. of oscillations permitted
2.0		! 2 Temperature dead band
INPUTS 3
2,1 		! example building: 1- TAIR_LOWER1 ->Monitoring temperature
0,0		! [unconnected] Heating setpoint
0,0		! [unconnected] Cooling setpoint
*** INITIAL INPUT VALUES
20.0 21 26 
*------------------------------------------------------------------------------

* EQUATIONS "eqns LWR1"
* 
EQUATIONS 14
HCap_LWR1 = (11.97)*3600.    ! [kW]->[kJ/h] 25% oversize on heating capacity
CCap_LWR1 = (12.2)*3600.      ! [kW]->[kJ/h] 15% oversize on cooling capacity
effFan_LWR1 = (0.84)               ! [0..1] allowable fan efficiency from 90.1-2007 Table 10.8 and G3.1.2.9
HCliqFlow_LWR1 = (1832)          ! [kg/h] rated liquid flow rate
HCAirFlow_LWR1 = (6662)         ! [kg/h] rated air flow rate
pCondFan_LWR1 = (0.062)*3600.*[21,2]  ! [kW]->[kJ/h] condenser fan power consumption.
lps_LWR1 = (MAX(HCap_LWR1,CCap_LWR1)/(1.007*11.))/1.2*1000/3600.   ! supply air flow rate according to ASHRAE 90.1-2007 G3.1.2.8
kghAir_LWR1 = lps_LWR1*3600./1000.*1.2                               ! [kg/h] rated air flow rate (unit conversion).
pTotFan_LWR1 = lps_LWR1*0.64*3.6                      ! [kJ/h] total fan power allowance (assumes 0.64W/lps from ASHRAE 90.1-2007 G3.1.2.9)
kghOA_LWR1 = lpsOA_LWR1*3600./1000.*1.2  ! [kg/h] rated quantity of outdoor air supplied to the zone (unit conversion)
pInFan_LWR1 = pTotFan_LWR1                            ! indoor fan power = total powerallowance (ie no exhaust fans)
yInFan_LWR1 = OR([21,3],[16,1])                             ! indoor fan control signal. On during building occupancy or when the thermostat is calling.
mRetNow_LWR1 = kghAir_LWR1*yInFan_LWR1 - kghOA_LWR1*[16,1]  ! [kg/h] current return air quantity
mOANow_LWR1 = kghOA_LWR1*[16,1]  ! [kg/h] current outside air quantity
*$UNIT_NAME eqns LWR1
*$LAYER Main
*$POSITION 117 139
*$UNIT_NUMBER 22

*------------------------------------------------------------------------------


* Model "LWR1 mix" (Type 148)
* 

UNIT 23 TYPE 148	 LWR1 mix
*$UNIT_NAME LWR1 mix
*$MODEL .\Hydronics\Tee-Piece Flow Mixer\Moist Air\Type148b.tmf
*$POSITION 290 179
*$LAYER Main # 
PARAMETERS 2
1		! 1 Humidity Mode
1		! 2 Mode
INPUTS 10
2,1 		! example building: 1- TAIR_LOWER1 ->Inlet Air Temperature - 1
0,0		! [unconnected] Inlet Air Humidity Ratio - 1
2,6 		! example building: 6- RELHUM_LOWER1 ->Inlet Air Relative Humidity - 1
mRetNow_LWR1		! eqns LWR1:mRetNow_LWR1 ->Inlet Air Flow Rate - 1
0,0		! [unconnected] Inlet Air Pressure - 1
3,1 		! Boston, MA:Dry bulb temperature ->Inlet Air Temperature - 2
0,0		! [unconnected] Inlet Air Humidity Ratio - 2
3,7 		! Boston, MA:Percent relative humidity ->Inlet Air Relative Humidity - 2
mOANow_LWR1		! eqns LWR1:mOANow_LWR1 ->Inlet Air Flow Rate - 2
0,0		! [unconnected] Inlet Air Pressure - 2
*** INITIAL INPUT VALUES
20.0 0.008 50 0 1 25 0.001 30 0 1 
*------------------------------------------------------------------------------

* Model "LWR1 fan" (Type 146)
* 

UNIT 24 TYPE 146	 LWR1 fan
SUMMARIZE 24 "LWR1 fan"
*$UNIT_NAME LWR1 fan
*$MODEL .\Hydronics\Fan\Constant Speed\Type146.tmf
*$POSITION 423 179
*$LAYER Main # 
*$# Single-Speed Fan
PARAMETERS 5
2		! 1 Humidity Mode
lps_LWR1		! 2 Rated Volumetric Flow Rate
pInFan_LWR1		! 3 Rated Power
effFan_LWR1		! 4 Motor Efficiency
0		! 5 Motor Heat Loss Fraction
INPUTS 7
23,1 		! LWR1 mix:Outlet Temperature ->Inlet Air Temperature
0,0		! [unconnected] Inlet Air Humidity Ratio
23,3 		! LWR1 mix:Outlet Relative Humidity ->Inlet Air % Relative Humidity
23,4 		! LWR1 mix:Outlet Flow Rate ->Air Flow Rate
23,5 		! LWR1 mix:Outlet Pressure ->Inlet Air Pressure
yInFan_LWR1		! eqns LWR1:yInFan_LWR1 ->Control Signal
0,0		! [unconnected] Air-Side Pressure Increase
*** INITIAL INPUT VALUES
20.0 0.008 50. 2000.0 1. 1.0 0.0 
*------------------------------------------------------------------------------

* Model "ZONE PLOT" (Type 65)
* 

UNIT 4 TYPE 65	 ZONE PLOT
*$UNIT_NAME ZONE PLOT
*$MODEL .\Output\Online Plotter\Online Plotter Without File\Type65d.tmf
*$POSITION 694 74
*$LAYER Outputs # 
PARAMETERS 12
6		! 1 Nb. of left-axis variables
0		! 2 Nb. of right-axis variables
-30		! 3 Left axis minimum
40		! 4 Left axis maximum
0.0		! 5 Right axis minimum
1000.0		! 6 Right axis maximum
nPlots		! 7 Number of plots per simulation
7		! 8 X-axis gridpoints
0		! 9 Shut off Online w/o removing
-1		! 10 Logical unit for output file
0		! 11 Output file units
0		! 12 Output file delimiter
INPUTS 6
3,1 		! Boston, MA:Dry bulb temperature ->Left axis variable-1
2,1 		! example building: 1- TAIR_LOWER1 ->Left axis variable-2
2,2 		! example building: 2- TAIR_LOWER2 ->Left axis variable-3
2,3 		! example building: 3- TAIR_LOWER3 ->Left axis variable-4
2,4 		! example building: 4- TAIR_LOWER4 ->Left axis variable-5
2,5 		! example building: 5- TAIR_UPPER ->Left axis variable-6
*** INITIAL INPUT VALUES
T_AMBIENT TAIR_LOWER1 TAIR_LOWER2 TAIR_LOWER3 TAIR_LOWER4 TAIR_UPPER

LABELS  3
"Temperature [C]"
"not used"
"zones"
*------------------------------------------------------------------------------

* Model "SYSTEM PLOT" (Type 65)
* 

UNIT 26 TYPE 65	 SYSTEM PLOT
*$UNIT_NAME SYSTEM PLOT
*$MODEL .\Output\Online Plotter\Online Plotter Without File\Type65d.tmf
*$POSITION 873 330
*$LAYER Main # 
PARAMETERS 12
4		! 1 Nb. of left-axis variables
4		! 2 Nb. of right-axis variables
-30		! 3 Left axis minimum
40		! 4 Left axis maximum
0.0		! 5 Right axis minimum
10000		! 6 Right axis maximum
nPlots		! 7 Number of plots per simulation
7		! 8 X-axis gridpoints
0		! 9 Shut off Online w/o removing
-1		! 10 Logical unit for output file
0		! 11 Output file units
0		! 12 Output file delimiter
INPUTS 8
32,1 		! LWR2 mix:Outlet Temperature ->Left axis variable-1
33,1 		! LWR2 fan:Outlet Air Temperature ->Left axis variable-2
34,1 		! LWR2 AC:Return Air Temperature ->Left axis variable-3
35,3 		! LWR2 HC:Outlet Air Temperature ->Left axis variable-4
32,4 		! LWR2 mix:Outlet Flow Rate ->Right axis variable-1
33,4 		! LWR2 fan:Outlet Flow Rate ->Right axis variable-2
34,4 		! LWR2 AC:Return Air Flow Rate ->Right axis variable-3
35,6 		! LWR2 HC:Outlet Air Flow Rate ->Right axis variable-4
*** INITIAL INPUT VALUES
T_mix T_Fan T_AC T_HC mMix mFan mAC mHC 
LABELS  3
"Temperature [C]"
"Flow Rate [kJ/h] "
"LWR2 system"
*------------------------------------------------------------------------------

* Model "LWR1 AC" (Type 144)
* 

UNIT 27 TYPE 144	 LWR1 AC
SUMMARIZE 27 "LWR1 AC"
*$UNIT_NAME LWR1 AC
*$MODEL .\HVAC\Split System AC\Type144.tmf
*$POSITION 551 179
*$LAYER Main # 
*$# Air Conditioner
PARAMETERS 7
2		! 1 Humidity Mode
32		! 2 Logical Unit for Performance Data
4		! 3 Number of Condenser Temperatures
3		! 4 Number of Evaporator Flows
3		! 5 Number of Indoor Wetbulbs
4		! 6 Number of Indoor Drybulb Temperatures
0		! 7 Blower Power Draw
INPUTS 8
3,1 		! Boston, MA:Dry bulb temperature ->Ambient Temperature
24,1 		! LWR1 fan:Outlet Air Temperature ->Indoor Temperature
0,0		! [unconnected] Indoor Humidity Ratio
24,3 		! LWR1 fan:Outlet Air % Relative Humidity ->Indoor % Relative Humidity
24,4 		! LWR1 fan:Outlet Flow Rate ->Evaporator Flow Rate
24,5 		! LWR1 fan:Outlet Air Pressure ->Indoor Air Pressure
0,0		! [unconnected] Air-Side Pressure Drop
21,2 		! LWR1 stat:Control signal for cooling ->Control Signal
*** INITIAL INPUT VALUES
30.0 20.0 0.008 50. 0.0 1.0 0.0 1 
*** External files
ASSIGN "equipment\SplitSystemAC_47681.dat" 32
*|? Which file contains the cooling coil performance data? |1000
*------------------------------------------------------------------------------

* Model "LWR1 HC" (Type 140)
* 

UNIT 28 TYPE 140	 LWR1 HC
SUMMARIZE 28 "LWR1 HC"
*$UNIT_NAME LWR1 HC
*$MODEL .\HVAC\Heating Coil\Constant UA\Type140.tmf
*$POSITION 683 179
*$LAYER Main # 
*$# Simple Heating Coil
PARAMETERS 9
1		! 1 Humidity Mode
49		! 2 Inlet Fluid Temperature - Rated
HCliqFlow_LWR1		! 3 Inlet Fluid Flow Rate - Rated
16		! 4 Inlet Air Temperature - Rated
0.007		! 5 Inlet Air Humidity Ratio - Rated
HCAirFlow_LWR1		! 6 Inlet Air Flow Rate - Rated
HCap_LWR1		! 7 Total Heating Capacity - Rated
Cp_H2O		! 8 Fluid Specific Heat
1		! 9 Heat Exchanger Configuration
INPUTS 7
29,1 		! LWR1 vP:Outlet fluid temperature ->Inlet Fluid Temperature
29,2 		! LWR1 vP:Outlet flow rate ->Inlet Fluid Flow Rate
27,1 		! LWR1 AC:Return Air Temperature ->Inlet Air Temperature
0,0		! [unconnected] Inlet Air Humidity Ratio
27,3 		! LWR1 AC:Return Air % Relative Humidity ->Inlet Air Relative Humidity
27,4 		! LWR1 AC:Return Air Flow Rate ->Inlet Air Flow Rate
0,0		! [unconnected] Inlet Air Pressure
*** INITIAL INPUT VALUES
62 0 15.6 0.008 0 0 1 
*------------------------------------------------------------------------------

* Model "LWR1 vP" (Type 114)
* 

UNIT 29 TYPE 114	 LWR1 vP
*$UNIT_NAME LWR1 vP
*$MODEL .\Hydronics\Pumps\Single Speed\Type114.tmf
*$POSITION 593 84
*$LAYER Main # 
*$# SINGLE-SPEED PUMP
PARAMETERS 4
HCliqFlow_LWR1		! 1 Rated flow rate
Cp_H2O		! 2 Fluid specific heat
0		! 3 Rated power
0.0		! 4 Motor heat loss fraction
INPUTS 5
T_HCsupply		! div-1:T_HCsupply ->Inlet fluid temperature
m_LWR1		! div-1:m_LWR1 ->Inlet fluid flow rate
21,1 		! LWR1 stat:Control signal for heating ->Control signal
0,0		! [unconnected] Overall pump efficiency
0,0		! [unconnected] Motor efficiency
*** INITIAL INPUT VALUES
80 0 1.0 0.6 0.9 
*------------------------------------------------------------------------------

* Model "LWR2 stat" (Type 166)
* 

UNIT 30 TYPE 166	 LWR2 stat
*$UNIT_NAME LWR2 stat
*$MODEL .\Controllers\Simple Thermostat\Type166.tmf
*$POSITION 295 274
*$LAYER Main # 
*$# Simple Thermostat
PARAMETERS 2
5		! 1 No. of oscillations permitted
2.0		! 2 Temperature dead band
INPUTS 3
2,2 		! example building: 2- TAIR_LOWER2 ->Monitoring temperature
0,0		! [unconnected] Heating setpoint
0,0		! [unconnected] Cooling setpoint
*** INITIAL INPUT VALUES
20.0 21 26 
*------------------------------------------------------------------------------

* EQUATIONS "eqns LWR2"
* 
EQUATIONS 14
HCap_LWR2 = (8.06)*3600.    ! [kW]->[kJ/h] 25% oversize on heating capacity
CCap_LWR2 = (10.87)*3600.      ! [kW]->[kJ/h] 15% oversize on cooling capacity
effFan_LWR2 = (0.84)               ! [0..1] allowable fan efficiency from 90.1-2007 Table 10.8 and G3.1.2.9
HCliqFlow_LWR2 = (1233)          ! [kg/h] rated liquid flow rate
HCAirFlow_LWR2 = (4484)         ! [kg/h] rated air flow rate
pCondFan_LWR2 = (0.062)*3600.*[30,2]  ! [kW]->[kJ/h] condenser fan power consumption.
lps_LWR2 = (MAX(HCap_LWR2,CCap_LWR2)/(1.007*11.))/1.2*1000/3600.   ! supply air flow rate according to ASHRAE 90.1-2007 G3.1.2.8
kghAir_LWR2 = lps_LWR2*3600./1000.*1.2                               ! [kg/h] rated air flow rate (unit conversion).
pTotFan_LWR2 = lps_LWR2*0.64*3.6                      ! [kJ/h] total fan power allowance (assumes 0.64W/lps from ASHRAE 90.1-2007 G3.1.2.9)
kghOA_LWR2 = lpsOA_LWR2*3600./1000.*1.2  ! [kg/h] rated quantity of outdoor air supplied to the zone (unit conversion)
pInFan_LWR2 = pTotFan_LWR2                            ! indoor fan power = total powerallowance (ie no exhaust fans)
yInFan_LWR2 = OR([30,3],[16,1])                             ! indoor fan control signal. On during building occupancy or when the thermostat is calling.
mRetNow_LWR2 = kghAir_LWR2*yInFan_LWR2 - kghOA_LWR2*[16,1]  ! [kg/h] current return air quantity
mOANow_LWR2 = kghOA_LWR2*[16,1]  ! [kg/h] current outside air quantity
*$UNIT_NAME eqns LWR2
*$LAYER Main
*$POSITION 127 329
*$UNIT_NUMBER 31

*------------------------------------------------------------------------------


* Model "LWR2 mix" (Type 148)
* 

UNIT 32 TYPE 148	 LWR2 mix
*$UNIT_NAME LWR2 mix
*$MODEL .\Hydronics\Tee-Piece Flow Mixer\Moist Air\Type148b.tmf
*$POSITION 300 369
*$LAYER Main # 
PARAMETERS 2
1		! 1 Humidity Mode
1		! 2 Mode
INPUTS 10
2,2 		! example building: 2- TAIR_LOWER2 ->Inlet Air Temperature - 1
0,0		! [unconnected] Inlet Air Humidity Ratio - 1
2,7 		! example building: 7- RELHUM_LOWER2 ->Inlet Air Relative Humidity - 1
mRetNow_LWR2		! eqns LWR2:mRetNow_LWR2 ->Inlet Air Flow Rate - 1
0,0		! [unconnected] Inlet Air Pressure - 1
3,1 		! Boston, MA:Dry bulb temperature ->Inlet Air Temperature - 2
0,0		! [unconnected] Inlet Air Humidity Ratio - 2
3,7 		! Boston, MA:Percent relative humidity ->Inlet Air Relative Humidity - 2
mOANow_LWR2		! eqns LWR2:mOANow_LWR2 ->Inlet Air Flow Rate - 2
0,0		! [unconnected] Inlet Air Pressure - 2
*** INITIAL INPUT VALUES
20.0 0.008 50 0 1 25 0.001 30 0 1 
*------------------------------------------------------------------------------

* Model "LWR2 fan" (Type 146)
* 

UNIT 33 TYPE 146	 LWR2 fan
SUMMARIZE 33 "LWR2 fan"
*$UNIT_NAME LWR2 fan
*$MODEL .\Hydronics\Fan\Constant Speed\Type146.tmf
*$POSITION 433 369
*$LAYER Main # 
*$# Single-Speed Fan
PARAMETERS 5
2		! 1 Humidity Mode
lps_LWR2		! 2 Rated Volumetric Flow Rate
pInFan_LWR2		! 3 Rated Power
effFan_LWR2		! 4 Motor Efficiency
0		! 5 Motor Heat Loss Fraction
INPUTS 7
32,1 		! LWR2 mix:Outlet Temperature ->Inlet Air Temperature
0,0		! [unconnected] Inlet Air Humidity Ratio
32,3 		! LWR2 mix:Outlet Relative Humidity ->Inlet Air % Relative Humidity
32,4 		! LWR2 mix:Outlet Flow Rate ->Air Flow Rate
32,5 		! LWR2 mix:Outlet Pressure ->Inlet Air Pressure
yInFan_LWR2		! eqns LWR2:yInFan_LWR2 ->Control Signal
0,0		! [unconnected] Air-Side Pressure Increase
*** INITIAL INPUT VALUES
20.0 0.008 50. 2000.0 1. 1.0 0.0 
*------------------------------------------------------------------------------

* Model "LWR2 AC" (Type 144)
* 

UNIT 34 TYPE 144	 LWR2 AC
SUMMARIZE 34 "LWR2 AC"
*$UNIT_NAME LWR2 AC
*$MODEL .\HVAC\Split System AC\Type144.tmf
*$POSITION 561 369
*$LAYER Main # 
*$# Air Conditioner
PARAMETERS 7
2		! 1 Humidity Mode
33		! 2 Logical Unit for Performance Data
4		! 3 Number of Condenser Temperatures
3		! 4 Number of Evaporator Flows
3		! 5 Number of Indoor Wetbulbs
4		! 6 Number of Indoor Drybulb Temperatures
0		! 7 Blower Power Draw
INPUTS 8
3,1 		! Boston, MA:Dry bulb temperature ->Ambient Temperature
33,1 		! LWR2 fan:Outlet Air Temperature ->Indoor Temperature
0,0		! [unconnected] Indoor Humidity Ratio
33,3 		! LWR2 fan:Outlet Air % Relative Humidity ->Indoor % Relative Humidity